#RADIOSS STARTER
/BEGIN
assembly
      2021         0
                  kg                   m                   s
                  kg                   m                   s
/TITLE
CFD motion OpenRadioss shell export
/ANALY
         0                   0         0
/DEF_SHELL
         0         0         1         1         1                             1         0
/IOFLAG
         1                   0         0         0         0         0
/NODE
         1  8.674914085252E-02  7.623742282379E-03 -3.407390513094E-02
         2  8.674914085252E-02  6.051872282379E-03 -3.388410513094E-02
         3  8.762070085252E-02  6.045882282379E-03 -3.392170513094E-02
         4  8.674914085252E-02  5.897282282379E-03 -3.385890513094E-02
         5  8.674914085252E-02  4.326242282379E-03 -3.353470513094E-02
         6  8.762070085252E-02  4.317132282379E-03 -3.357160513094E-02
         7  8.674914085252E-02  4.194552282379E-03 -3.350170513094E-02
         8  8.674914085252E-02  2.635952282379E-03 -3.304190513094E-02
         9  8.762070085252E-02  2.623782282379E-03 -3.307790513094E-02
        10  8.674914085252E-02 -1.137014771762E-02 -1.654062513094E-02
        11  8.674914085252E-02 -1.139484771762E-02 -1.638596513094E-02
        12  8.762070085252E-02 -1.143244771762E-02 -1.639183513094E-02
        13  9.674914085252E-02 -2.164644771762E-02 -1.309656023094E-02
        14  9.674914085252E-02 -2.156814771762E-02 -1.534664513094E-02
        15  9.671695435252E-02 -2.084474771762E-02 -1.309483273094E-02
        16  9.671108785252E-02 -2.069884771762E-02 -1.528475513094E-02
        17  9.671108785252E-02 -2.077484771762E-02 -1.309468223094E-02
        18  9.662236785252E-02 -2.005914771762E-02 -1.309314003094E-02
        19  9.659721885252E-02 -1.983604771762E-02 -1.522333513094E-02
        20  9.659721885252E-02 -1.990994771762E-02 -1.309281853094E-02
# ... 3976 like lines cut
/MAT/ELAST/1
Foamcore
  6.630000000000E+02  0.000000000000E+00
  3.000000000000E+07  0.000000000000E+00
/PART/1
Part_1__5_
         1         1         0
/SH3N/1
         1         1         2         3
         2         4         5         6
         3         7         8         9
         4        10        11        12
         5        13        14        15
         6        14        16        15
         7        15        16        17
         8        17        16        18
         9        16        19        18
        10        18        19        20
        11        20        19        21
        12        19        22        21
        13        21        22        23
        14        23        22        24
        15        22        25        24
        16        24        25        26
        17        27        28        25
        18        28        29        25
        19        25        29        26
        20        30        31        27
# ... 960 like lines cut
/PROP/SHELL/1
Part_1__5_
         4         0         1         0                                       0
              0.01              0.01              0.01                 0                 0
         5         1  2.400000000000E-03  8.333333333333E-01         1         0
/MAT/ELAST/2
Foamcore
  6.630000000000E+02  0.000000000000E+00
  3.000000000000E+07  0.000000000000E+00
/PART/2
Part_1__4_
         2         2         0
/SH3N/2
       981       493       494       495
       982       496       497       498
       983       499       500       501
       984       502       503       504
       985       505       506       507
       986       506       508       507
       987       507       508       509
       988       509       508       510
       989       508       511       510
       990       510       511       512
       991       512       511       513
       992       511       514       513
       993       513       514       515
       994       515       514       516
       995       514       517       516
       996       516       517       518
       997       519       520       517
       998       520       521       517
       999       517       521       518
      1000       522       523       519
# ... 960 like lines cut
/PROP/SHELL/2
Part_1__4_
         4         0         1         0                                       0
              0.01              0.01              0.01                 0                 0
         5         1  2.400000000000E-03  8.333333333333E-01         1         0
/MAT/ELAST/3
Tungsten
  1.960000000000E+04  0.000000000000E+00
  4.000000000000E+11  2.800000000000E-01
/PART/3
Part_1__1_
         3         3         0
/SH3N/3
      1961       985       986       987
      1962       986       988       987
      1963       987       988       989
      1964       988       990       989
      1965       989       990       991
      1966       990       992       991
      1967       991       992       993
      1968       992       994       993
      1969       993       994       995
      1970       994       996       995
      1971       995       996       997
      1972       996       998       997
      1973       997       998       999
      1974       998      1000       999
      1975       999      1000      1001
      1976      1000      1002      1001
      1977      1001      1002      1003
      1978      1002      1004      1003
      1979      1003      1004      1005
      1980      1004      1006      1005
# ... 3724 like lines cut
/PROP/SHELL/3
Part_1__1_
         4         0         1         0                                       0
              0.01              0.01              0.01                 0                 0
         5         1  4.362552000000E-03  8.333333333333E-01         1         0
/MAT/ELAST/4
Foamcore
  6.630000000000E+02  0.000000000000E+00
  3.000000000000E+07  0.000000000000E+00
/PART/4
Part_1__2_
         4         4         0
/SH3N/4
      5705      2859      2860      2861
      5706      2860      2862      2861
      5707      2861      2862      2863
      5708      2864      2865      2861
      5709      2865      2866      2861
      5710      2861      2866      2859
      5711      2867      2868      2861
      5712      2868      2869      2861
      5713      2861      2869      2864
      5714      2870      2871      2861
      5715      2871      2872      2861
      5716      2861      2872      2867
      5717      2873      2874      2861
      5718      2874      2875      2861
      5719      2861      2875      2870
      5720      2876      2877      2861
      5721      2877      2878      2861
      5722      2861      2878      2873
      5723      2879      2880      2861
      5724      2880      2881      2861
# ... 268 like lines cut
/PROP/SHELL/4
Part_1__2_
         4         0         1         0                                       0
              0.01              0.01              0.01                 0                 0
         5         1  3.000000000000E-03  8.333333333333E-01         1         0
/MAT/ELAST/5
Foamcore
  6.630000000000E+02  0.000000000000E+00
  3.000000000000E+07  0.000000000000E+00
/PART/5
Part_1__3_
         5         5         0
/SH3N/5
      5993      3005      3006      3007
      5994      3008      3009      3010
      5995      3011      3012      3013
      5996      3014      3015      3016
      5997      3017      3018      3019
      5998      3018      3020      3019
      5999      3019      3020      3021
      6000      3021      3020      3022
      6001      3020      3023      3022
      6002      3022      3023      3024
      6003      3024      3023      3025
      6004      3023      3026      3025
      6005      3025      3026      3027
      6006      3027      3026      3028
      6007      3026      3029      3028
      6008      3028      3029      3030
      6009      3031      3032      3029
      6010      3032      3033      3029
      6011      3029      3033      3030
      6012      3034      3035      3031
# ... 960 like lines cut
/PROP/SHELL/5
Part_1__3_
         4         0         1         0                                       0
              0.01              0.01              0.01                 0                 0
         5         1  2.400000000000E-03  8.333333333333E-01         1         0
/MAT/ELAST/6
Foamcore
  6.630000000000E+02  0.000000000000E+00
  3.000000000000E+07  0.000000000000E+00
/PART/6
Part_1__6_
         6         6         0
/SH3N/6
      6973      3497      3498      3499
      6974      3500      3501      3502
      6975      3503      3504      3505
      6976      3506      3507      3508
      6977      3509      3510      3511
      6978      3510      3512      3511
      6979      3511      3512      3513
      6980      3513      3512      3514
      6981      3512      3515      3514
      6982      3514      3515      3516
      6983      3516      3515      3517
      6984      3515      3518      3517
      6985      3517      3518      3519
      6986      3519      3518      3520
      6987      3518      3521      3520
      6988      3520      3521      3522
      6989      3523      3524      3521
      6990      3524      3525      3521
      6991      3521      3525      3522
      6992      3526      3527      3523
# ... 960 like lines cut
/PROP/SHELL/6
Part_1__6_
         4         0         1         0                                       0
              0.01              0.01              0.01                 0                 0
         5         1  2.400000000000E-03  8.333333333333E-01         1         0
/MAT/ELAST/7
ABS
  1.052000000000E+03  0.000000000000E+00
  2.310000000000E+09  3.640000000000E-01
/PART/7
Part_1__1_
         7         7         0
/SH3N/7
      7953      3989      3990      3991
      7954      3990      3992      3991
      7955      3993      3994      3995
      7956      3994      3996      3995
      7957      3996      3994      3991
      7958      3994      3989      3991
      7959      3994      3993      3989
      7960      3993      3990      3989
      7961      3995      3996      3992
      7962      3996      3991      3992
      7963      3993      3995      3990
      7964      3995      3992      3990
/PROP/SHELL/7
Part_1__1_
         4         0         1         0                                       0
              0.01              0.01              0.01                 0                 0
         5         1  1.500000000000E-02  8.333333333333E-01         1         0
/GRNOD/NODE/1
Part_1__5_
         1         2         3         4         5         6         7         8
         9        10        11        12        13        14        15        16
        17        18        19        20        21        22        23        24
        25        26        27        28        29        30        31        32
        33        34        35        36        37        38        39        40
        41        42        43        44        45        46        47        48
        49        50        51        52        53        54        55        56
        57        58        59        60        61        62        63        64
        65        66        67        68        69        70        71        72
        73        74        75        76        77        78        79        80
        81        82        83        84        85        86        87        88
        89        90        91        92        93        94        95        96
        97        98        99       100       101       102       103       104
       105       106       107       108       109       110       111       112
       113       114       115       116       117       118       119       120
       121       122       123       124       125       126       127       128
       129       130       131       132       133       134       135       136
       137       138       139       140       141       142       143       144
       145       146       147       148       149       150       151       152
       153       154       155       156       157       158       159       160
# ... 42 like lines cut
/GRNOD/NODE/2
Part_1__4_
       493       494       495       496       497       498       499       500
       501       502       503       504       505       506       507       508
       509       510       511       512       513       514       515       516
       517       518       519       520       521       522       523       524
       525       526       527       528       529       530       531       532
       533       534       535       536       537       538       539       540
       541       542       543       544       545       546       547       548
       549       550       551       552       553       554       555       556
       557       558       559       560       561       562       563       564
       565       566       567       568       569       570       571       572
       573       574       575       576       577       578       579       580
       581       582       583       584       585       586       587       588
       589       590       591       592       593       594       595       596
       597       598       599       600       601       602       603       604
       605       606       607       608       609       610       611       612
       613       614       615       616       617       618       619       620
       621       622       623       624       625       626       627       628
       629       630       631       632       633       634       635       636
       637       638       639       640       641       642       643       644
       645       646       647       648       649       650       651       652
# ... 42 like lines cut
/GRNOD/NODE/3
Part_1__1_
       985       986       987       988       989       990       991       992
       993       994       995       996       997       998       999      1000
      1001      1002      1003      1004      1005      1006      1007      1008
      1009      1010      1011      1012      1013      1014      1015      1016
      1017      1018      1019      1020      1021      1022      1023      1024
      1025      1026      1027      1028      1029      1030      1031      1032
      1033      1034      1035      1036      1037      1038      1039      1040
      1041      1042      1043      1044      1045      1046      1047      1048
      1049      1050      1051      1052      1053      1054      1055      1056
      1057      1058      1059      1060      1061      1062      1063      1064
      1065      1066      1067      1068      1069      1070      1071      1072
      1073      1074      1075      1076      1077      1078      1079      1080
      1081      1082      1083      1084      1085      1086      1087      1088
      1089      1090      1091      1092      1093      1094      1095      1096
      1097      1098      1099      1100      1101      1102      1103      1104
      1105      1106      1107      1108      1109      1110      1111      1112
      1113      1114      1115      1116      1117      1118      1119      1120
      1121      1122      1123      1124      1125      1126      1127      1128
      1129      1130      1131      1132      1133      1134      1135      1136
      1137      1138      1139      1140      1141      1142      1143      1144
# ... 215 like lines cut
/GRNOD/NODE/4
Part_1__2_
      2859      2860      2861      2862      2863      2864      2865      2866
      2867      2868      2869      2870      2871      2872      2873      2874
      2875      2876      2877      2878      2879      2880      2881      2882
      2883      2884      2885      2886      2887      2888      2889      2890
      2891      2892      2893      2894      2895      2896      2897      2898
      2899      2900      2901      2902      2903      2904      2905      2906
      2907      2908      2909      2910      2911      2912      2913      2914
      2915      2916      2917      2918      2919      2920      2921      2922
      2923      2924      2925      2926      2927      2928      2929      2930
      2931      2932      2933      2934      2935      2936      2937      2938
      2939      2940      2941      2942      2943      2944      2945      2946
      2947      2948      2949      2950      2951      2952      2953      2954
      2955      2956      2957      2958      2959      2960      2961      2962
      2963      2964      2965      2966      2967      2968      2969      2970
      2971      2972      2973      2974      2975      2976      2977      2978
      2979      2980      2981      2982      2983      2984      2985      2986
      2987      2988      2989      2990      2991      2992      2993      2994
      2995      2996      2997      2998      2999      3000      3001      3002
      3003      3004
/GRNOD/NODE/5
Part_1__3_
      3005      3006      3007      3008      3009      3010      3011      3012
      3013      3014      3015      3016      3017      3018      3019      3020
      3021      3022      3023      3024      3025      3026      3027      3028
      3029      3030      3031      3032      3033      3034      3035      3036
      3037      3038      3039      3040      3041      3042      3043      3044
      3045      3046      3047      3048      3049      3050      3051      3052
      3053      3054      3055      3056      3057      3058      3059      3060
      3061      3062      3063      3064      3065      3066      3067      3068
      3069      3070      3071      3072      3073      3074      3075      3076
      3077      3078      3079      3080      3081      3082      3083      3084
      3085      3086      3087      3088      3089      3090      3091      3092
      3093      3094      3095      3096      3097      3098      3099      3100
      3101      3102      3103      3104      3105      3106      3107      3108
      3109      3110      3111      3112      3113      3114      3115      3116
      3117      3118      3119      3120      3121      3122      3123      3124
      3125      3126      3127      3128      3129      3130      3131      3132
      3133      3134      3135      3136      3137      3138      3139      3140
      3141      3142      3143      3144      3145      3146      3147      3148
      3149      3150      3151      3152      3153      3154      3155      3156
      3157      3158      3159      3160      3161      3162      3163      3164
# ... 42 like lines cut
/GRNOD/NODE/6
Part_1__6_
      3497      3498      3499      3500      3501      3502      3503      3504
      3505      3506      3507      3508      3509      3510      3511      3512
      3513      3514      3515      3516      3517      3518      3519      3520
      3521      3522      3523      3524      3525      3526      3527      3528
      3529      3530      3531      3532      3533      3534      3535      3536
      3537      3538      3539      3540      3541      3542      3543      3544
      3545      3546      3547      3548      3549      3550      3551      3552
      3553      3554      3555      3556      3557      3558      3559      3560
      3561      3562      3563      3564      3565      3566      3567      3568
      3569      3570      3571      3572      3573      3574      3575      3576
      3577      3578      3579      3580      3581      3582      3583      3584
      3585      3586      3587      3588      3589      3590      3591      3592
      3593      3594      3595      3596      3597      3598      3599      3600
      3601      3602      3603      3604      3605      3606      3607      3608
      3609      3610      3611      3612      3613      3614      3615      3616
      3617      3618      3619      3620      3621      3622      3623      3624
      3625      3626      3627      3628      3629      3630      3631      3632
      3633      3634      3635      3636      3637      3638      3639      3640
      3641      3642      3643      3644      3645      3646      3647      3648
      3649      3650      3651      3652      3653      3654      3655      3656
# ... 42 like lines cut
/GRNOD/NODE/7
Part_1__1_
      3989      3990      3991      3992      3993      3994      3995      3996
/INIVEL/TRA/1
velocity_Part_1__5_
 -3.000000000000E+01 -0.000000000000E+00 -0.000000000000E+00         1         0
/INIVEL/TRA/2
velocity_Part_1__4_
 -3.000000000000E+01 -0.000000000000E+00 -0.000000000000E+00         2         0
/INIVEL/TRA/3
velocity_Part_1__1_
 -3.000000000000E+01 -0.000000000000E+00 -0.000000000000E+00         3         0
/INIVEL/TRA/4
velocity_Part_1__2_
 -3.000000000000E+01 -0.000000000000E+00 -0.000000000000E+00         4         0
/INIVEL/TRA/5
velocity_Part_1__3_
 -3.000000000000E+01 -0.000000000000E+00 -0.000000000000E+00         5         0
/INIVEL/TRA/6
velocity_Part_1__6_
 -3.000000000000E+01 -0.000000000000E+00 -0.000000000000E+00         6         0
/INIVEL/TRA/7
velocity_Part_1__1_
  0.000000000000E+00  0.000000000000E+00  0.000000000000E+00         7         0
/INTER/TYPE7/2
contact_Part_1__5__Part_1__4_
         8         9         0         0         0                   0         0         0         0
  0.000000000000E+00  0.000000000000E+00  1.000000000000E+00                             0
                   0                   0                   0                   0         0         0
                   0  0.000000000000E+00  0.000000000000E+00  0.000000000000E+00  0.000000000000E+00
       000                             5  0.000000000000E+00  0.000000000000E+00  0.000000000000E+00
         0         0                   0         0         0         0                   0         0
/GRNOD/PART/8
secondary_Part_1__5_
         1
/SURF/PART/9
main_Part_1__4_
         2
/INTER/TYPE7/3
contact_Part_1__5__Part_1__1_
        10        11         0         0         0                   0         0         0         0
  0.000000000000E+00  0.000000000000E+00  1.000000000000E+00                             0
                   0                   0                   0                   0         0         0
                   0  0.000000000000E+00  0.000000000000E+00  0.000000000000E+00  0.000000000000E+00
       000                             5  0.000000000000E+00  0.000000000000E+00  0.000000000000E+00
         0         0                   0         0         0         0                   0         0
/GRNOD/PART/10
secondary_Part_1__5_
         1
/SURF/PART/11
main_Part_1__1_
         3
/INTER/TYPE7/4
contact_Part_1__5__Part_1__2_
        12        13         0         0         0                   0         0         0         0
  0.000000000000E+00  0.000000000000E+00  1.000000000000E+00                             0
                   0                   0                   0                   0         0         0
                   0  0.000000000000E+00  0.000000000000E+00  0.000000000000E+00  0.000000000000E+00
       000                             5  0.000000000000E+00  0.000000000000E+00  0.000000000000E+00
         0         0                   0         0         0         0                   0         0
/GRNOD/PART/12
secondary_Part_1__5_
         1
/SURF/PART/13
main_Part_1__2_
         4
/INTER/TYPE7/5
contact_Part_1__5__Part_1__3_
        14        15         0         0         0                   0         0         0         0
  0.000000000000E+00  0.000000000000E+00  1.000000000000E+00                             0
                   0                   0                   0                   0         0         0
                   0  0.000000000000E+00  0.000000000000E+00  0.000000000000E+00  0.000000000000E+00
       000                             5  0.000000000000E+00  0.000000000000E+00  0.000000000000E+00
         0         0                   0         0         0         0                   0         0
/GRNOD/PART/14
secondary_Part_1__5_
         1
/SURF/PART/15
main_Part_1__3_
         5
/INTER/TYPE7/6
contact_Part_1__5__Part_1__6_
        16        17         0         0         0                   0         0         0         0
  0.000000000000E+00  0.000000000000E+00  1.000000000000E+00                             0
                   0                   0                   0                   0         0         0
                   0  0.000000000000E+00  0.000000000000E+00  0.000000000000E+00  0.000000000000E+00
       000                             5  0.000000000000E+00  0.000000000000E+00  0.000000000000E+00
         0         0                   0         0         0         0                   0         0
/GRNOD/PART/16
secondary_Part_1__5_
         1
/SURF/PART/17
main_Part_1__6_
         6
/INTER/TYPE7/7
contact_Part_1__5__Part_1__1_
        18        19         0         0         0                   0         0         0         0
  0.000000000000E+00  0.000000000000E+00  1.000000000000E+00                             0
                   0                   0                   0                   0         0         0
                   0  0.000000000000E+00  0.000000000000E+00  0.000000000000E+00  0.000000000000E+00
       000                             5  0.000000000000E+00  0.000000000000E+00  0.000000000000E+00
         0         0                   0         0         0         0                   0         0
/GRNOD/PART/18
secondary_Part_1__5_
         1
/SURF/PART/19
main_Part_1__1_
         7
/INTER/TYPE7/10
contact_Part_1__4__Part_1__1_
        20        21         0         0         0                   0         0         0         0
  0.000000000000E+00  0.000000000000E+00  1.000000000000E+00                             0
                   0                   0                   0                   0         0         0
                   0  0.000000000000E+00  0.000000000000E+00  0.000000000000E+00  0.000000000000E+00
       000                             5  0.000000000000E+00  0.000000000000E+00  0.000000000000E+00
         0         0                   0         0         0         0                   0         0
/GRNOD/PART/20
secondary_Part_1__4_
         2
/SURF/PART/21
main_Part_1__1_
         3
/INTER/TYPE7/11
contact_Part_1__4__Part_1__2_
        22        23         0         0         0                   0         0         0         0
  0.000000000000E+00  0.000000000000E+00  1.000000000000E+00                             0
                   0                   0                   0                   0         0         0
                   0  0.000000000000E+00  0.000000000000E+00  0.000000000000E+00  0.000000000000E+00
       000                             5  0.000000000000E+00  0.000000000000E+00  0.000000000000E+00
         0         0                   0         0         0         0                   0         0
/GRNOD/PART/22
secondary_Part_1__4_
         2
/SURF/PART/23
main_Part_1__2_
         4
/INTER/TYPE7/12
contact_Part_1__4__Part_1__3_
        24        25         0         0         0                   0         0         0         0
  0.000000000000E+00  0.000000000000E+00  1.000000000000E+00                             0
                   0                   0                   0                   0         0         0
                   0  0.000000000000E+00  0.000000000000E+00  0.000000000000E+00  0.000000000000E+00
       000                             5  0.000000000000E+00  0.000000000000E+00  0.000000000000E+00
         0         0                   0         0         0         0                   0         0
/GRNOD/PART/24
secondary_Part_1__4_
         2
/SURF/PART/25
main_Part_1__3_
         5
/INTER/TYPE7/13
contact_Part_1__4__Part_1__6_
        26        27         0         0         0                   0         0         0         0
  0.000000000000E+00  0.000000000000E+00  1.000000000000E+00                             0
                   0                   0                   0                   0         0         0
                   0  0.000000000000E+00  0.000000000000E+00  0.000000000000E+00  0.000000000000E+00
       000                             5  0.000000000000E+00  0.000000000000E+00  0.000000000000E+00
         0         0                   0         0         0         0                   0         0
/GRNOD/PART/26
secondary_Part_1__4_
         2
/SURF/PART/27
main_Part_1__6_
         6
/INTER/TYPE7/14
contact_Part_1__4__Part_1__1_
        28        29         0         0         0                   0         0         0         0
  0.000000000000E+00  0.000000000000E+00  1.000000000000E+00                             0
                   0                   0                   0                   0         0         0
                   0  0.000000000000E+00  0.000000000000E+00  0.000000000000E+00  0.000000000000E+00
       000                             5  0.000000000000E+00  0.000000000000E+00  0.000000000000E+00
         0         0                   0         0         0         0                   0         0
/GRNOD/PART/28
secondary_Part_1__4_
         2
/SURF/PART/29
main_Part_1__1_
         7
/INTER/TYPE7/18
contact_Part_1__1__Part_1__2_
        30        31         0         0         0                   0         0         0         0
  0.000000000000E+00  0.000000000000E+00  1.000000000000E+00                             0
                   0                   0                   0                   0         0         0
                   0  0.000000000000E+00  0.000000000000E+00  0.000000000000E+00  0.000000000000E+00
       000                             5  0.000000000000E+00  0.000000000000E+00  0.000000000000E+00
         0         0                   0         0         0         0                   0         0
/GRNOD/PART/30
secondary_Part_1__1_
         3
/SURF/PART/31
main_Part_1__2_
         4
/INTER/TYPE7/19
contact_Part_1__1__Part_1__3_
        32        33         0         0         0                   0         0         0         0
  0.000000000000E+00  0.000000000000E+00  1.000000000000E+00                             0
                   0                   0                   0                   0         0         0
                   0  0.000000000000E+00  0.000000000000E+00  0.000000000000E+00  0.000000000000E+00
       000                             5  0.000000000000E+00  0.000000000000E+00  0.000000000000E+00
         0         0                   0         0         0         0                   0         0
/GRNOD/PART/32
secondary_Part_1__1_
         3
/SURF/PART/33
main_Part_1__3_
         5
/INTER/TYPE7/20
contact_Part_1__1__Part_1__6_
        34        35         0         0         0                   0         0         0         0
  0.000000000000E+00  0.000000000000E+00  1.000000000000E+00                             0
                   0                   0                   0                   0         0         0
                   0  0.000000000000E+00  0.000000000000E+00  0.000000000000E+00  0.000000000000E+00
       000                             5  0.000000000000E+00  0.000000000000E+00  0.000000000000E+00
         0         0                   0         0         0         0                   0         0
/GRNOD/PART/34
secondary_Part_1__1_
         3
/SURF/PART/35
main_Part_1__6_
         6
/INTER/TYPE7/21
contact_Part_1__1__Part_1__1_
        36        37         0         0         0                   0         0         0         0
  0.000000000000E+00  0.000000000000E+00  1.000000000000E+00                             0
                   0                   0                   0                   0         0         0
                   0  0.000000000000E+00  0.000000000000E+00  0.000000000000E+00  0.000000000000E+00
       000                             5  0.000000000000E+00  0.000000000000E+00  0.000000000000E+00
         0         0                   0         0         0         0                   0         0
/GRNOD/PART/36
secondary_Part_1__1_
         3
/SURF/PART/37
main_Part_1__1_
         7
/INTER/TYPE7/26
contact_Part_1__2__Part_1__3_
        38        39         0         0         0                   0         0         0         0
  0.000000000000E+00  0.000000000000E+00  1.000000000000E+00                             0
                   0                   0                   0                   0         0         0
                   0  0.000000000000E+00  0.000000000000E+00  0.000000000000E+00  0.000000000000E+00
       000                             5  0.000000000000E+00  0.000000000000E+00  0.000000000000E+00
         0         0                   0         0         0         0                   0         0
/GRNOD/PART/38
secondary_Part_1__2_
         4
/SURF/PART/39
main_Part_1__3_
         5
/INTER/TYPE7/27
contact_Part_1__2__Part_1__6_
        40        41         0         0         0                   0         0         0         0
  0.000000000000E+00  0.000000000000E+00  1.000000000000E+00                             0
                   0                   0                   0                   0         0         0
                   0  0.000000000000E+00  0.000000000000E+00  0.000000000000E+00  0.000000000000E+00
       000                             5  0.000000000000E+00  0.000000000000E+00  0.000000000000E+00
         0         0                   0         0         0         0                   0         0
/GRNOD/PART/40
secondary_Part_1__2_
         4
/SURF/PART/41
main_Part_1__6_
         6
/INTER/TYPE7/28
contact_Part_1__2__Part_1__1_
        42        43         0         0         0                   0         0         0         0
  0.000000000000E+00  0.000000000000E+00  1.000000000000E+00                             0
                   0                   0                   0                   0         0         0
                   0  0.000000000000E+00  0.000000000000E+00  0.000000000000E+00  0.000000000000E+00
       000                             5  0.000000000000E+00  0.000000000000E+00  0.000000000000E+00
         0         0                   0         0         0         0                   0         0
/GRNOD/PART/42
secondary_Part_1__2_
         4
/SURF/PART/43
main_Part_1__1_
         7
/INTER/TYPE7/34
contact_Part_1__3__Part_1__6_
        44        45         0         0         0                   0         0         0         0
  0.000000000000E+00  0.000000000000E+00  1.000000000000E+00                             0
                   0                   0                   0                   0         0         0
                   0  0.000000000000E+00  0.000000000000E+00  0.000000000000E+00  0.000000000000E+00
       000                             5  0.000000000000E+00  0.000000000000E+00  0.000000000000E+00
         0         0                   0         0         0         0                   0         0
/GRNOD/PART/44
secondary_Part_1__3_
         5
/SURF/PART/45
main_Part_1__6_
         6
/INTER/TYPE7/35
contact_Part_1__3__Part_1__1_
        46        47         0         0         0                   0         0         0         0
  0.000000000000E+00  0.000000000000E+00  1.000000000000E+00                             0
                   0                   0                   0                   0         0         0
                   0  0.000000000000E+00  0.000000000000E+00  0.000000000000E+00  0.000000000000E+00
       000                             5  0.000000000000E+00  0.000000000000E+00  0.000000000000E+00
         0         0                   0         0         0         0                   0         0
/GRNOD/PART/46
secondary_Part_1__3_
         5
/SURF/PART/47
main_Part_1__1_
         7
/INTER/TYPE7/42
contact_Part_1__6__Part_1__1_
        48        49         0         0         0                   0         0         0         0
  0.000000000000E+00  0.000000000000E+00  1.000000000000E+00                             0
                   0                   0                   0                   0         0         0
                   0  0.000000000000E+00  0.000000000000E+00  0.000000000000E+00  0.000000000000E+00
       000                             5  0.000000000000E+00  0.000000000000E+00  0.000000000000E+00
         0         0                   0         0         0         0                   0         0
/GRNOD/PART/48
secondary_Part_1__6_
         6
/SURF/PART/49
main_Part_1__1_
         7
/END
